#simulations

[Config StationaryChord]
record-eventlog = false
#debug-on-errors = true
**.vector-recording = true
**.scalar-recording = true
sim-time-limit = 60min #note: see oversim-specific parameters "transition-time" / "measurement time"
description = "Stationary Chord"
network = Scenario

*.hosts = 30

**.constraintAreaMinX = 0m
**.constraintAreaMinY = 0m
**.constraintAreaMinZ = 0m
**.constraintAreaMaxX = 2000m
**.constraintAreaMaxY = 2000m
**.constraintAreaMaxZ = 0m
*.host[*].wlan[*].radio.maxDistance = 750m

**.neighborCache.debugOutput = true
**.chord.overlayId = 0

# mobility
**.host*.mobilityType = "StationaryMobility"
**.host*.mobility.initFromDisplayString = false

**.host*.ac_wlan.interfaces = "wlan0"

#overlay
**.overlayType = "p2psipmanet.ManetChordModules"
**.overlay.chord.joinDelay = 20s

#tiers
**.tier1Type = "oversim.applications.kbrtestapp.KBRTestAppModules"
**.tier1*.kbrTestApp.testMsgInterval = 30s
**.tier1*.kbrTestApp.kbrOneWayTest = false
**.tier1*.kbrTestApp.kbrRpcTest = false
**.tier1*.kbrTestApp.kbrLookupTest = true
**.tier2Type = "oversim.common.TierDummy"
**.tier3Type = "oversim.common.TierDummy"
**.numTiers = 1

**.tier3.debugOutput = false
**.tier2.debugOutput = false

#OLSR manet routing
**.terminalTypes= "p2psipmanet.Host"
**.churnGeneratorTypes = "p2psipmanet.ZeroChurn" # a list of churn generators to be used
**.transitionTime = 20s
**.measurementTime = 480s

[Config StationaryEpiChord]
record-eventlog = false
#debug-on-errors = true
**.vector-recording = true
**.scalar-recording = true
sim-time-limit = 60min #note: see oversim-specific parameters "transition-time" / "measurement time"
description = "Stationary EpiChord"
network = Scenario

*.hosts = 30

**.constraintAreaMinX = 0m
**.constraintAreaMinY = 0m
**.constraintAreaMinZ = 0m
**.constraintAreaMaxX = 2000m
**.constraintAreaMaxY = 2000m
**.constraintAreaMaxZ = 0m
*.host[*].wlan[*].radio.maxDistance = 750m

**.neighborCache.debugOutput = true
**.epichord.overlayId = 0

# mobility
**.host*.mobilityType = "StationaryMobility"
**.host*.mobility.initFromDisplayString = false

**.host*.ac_wlan.interfaces = "wlan0"

#overlay
**.overlayType = "p2psipmanet.ManetEpiChordModules"
**.overlay*.epichord.lookupRedundantNodes = 3
**.overlay*.epichord.lookupParallelPaths = 1
**.overlay*.epichord.lookupParallelRpcs = 1
**.overlay*.epichord.lookupMerge = true
**.overlay*.epichord.routingType = "iterative"
**.overlay*.epichord.joinRetry = 2
**.overlay*.epichord.joinDelay = 20s
**.overlay*.epichord.stabilizeDelay = 20s
**.overlay*.epichord.stabilizeEstimation = true
**.overlay*.epichord.stabilizeEstimateMuliplier = 0.5
**.overlay*.epichord.cacheFlushDelay = 20s
**.overlay*.epichord.cacheCheckMultiplier = 3
**.overlay*.epichord.cacheTTL = 120s
**.overlay*.epichord.successorListSize = 4
**.overlay*.epichord.nodesPerSlice = 2
**.overlay*.epichord.cacheUpdateDelta = 0.5
**.overlay*.epichord.activePropagation = true
**.overlay*.epichord.sendFalseNegWarnings = true
**.overlay*.epichord.fibonacci = false

#tiers
**.tier1Type = "oversim.applications.kbrtestapp.KBRTestAppModules"
**.tier1*.kbrTestApp.testMsgInterval = 30s
**.tier1*.kbrTestApp.kbrOneWayTest = false
**.tier1*.kbrTestApp.kbrRpcTest = false
**.tier1*.kbrTestApp.kbrLookupTest = true
**.tier2Type = "oversim.common.TierDummy"
**.tier3Type = "oversim.common.TierDummy"

**.numTiers = 1

**.tier3.debugOutput = false
**.tier2.debugOutput = false

#OLSR manet routing
**.terminalTypes= "p2psipmanet.Host"
*.underlayConfigurator.churnGeneratorTypes = "p2psipmanet.ZeroChurn"
**.transitionTime = 20s
**.measurementTime = 480s

[Config StationaryOneHopOverlay4MANET]
record-eventlog = false
#debug-on-errors = true
**.vector-recording = true
**.scalar-recording = true
sim-time-limit = 60min #note: see oversim-specific parameters "transition-time" / "measurement time"
description = "Stationary Mobility OneHopOverlay4MANET"
network = Scenario

*.hosts = 30

**.constraintAreaMinX = 0m
**.constraintAreaMinY = 0m
**.constraintAreaMinZ = 0m
**.constraintAreaMaxX = 2000m
**.constraintAreaMaxY = 2000m
**.constraintAreaMaxZ = 0m
*.host[*].wlan[*].radio.maxDistance = 750m

**.neighborCache.debugOutput = true
**.onehopoverlay4manet.overlayId = 0

# mobility
**.host*.mobilityType = "StationaryMobility"
**.host*.mobility.initFromDisplayString = false

**.host*.ac_wlan.interfaces = "wlan0"

#overlay
**.overlayType = "p2psipmanet.ManetOneHopOverlay4MANETModules"
**.overlay*.onehopoverlay4manet.lookupRedundantNodes = 3
**.overlay*.onehopoverlay4manet.lookupParallelPaths = 1
**.overlay*.onehopoverlay4manet.lookupParallelRpcs = 1
**.overlay*.onehopoverlay4manet.lookupMerge = true
**.overlay*.onehopoverlay4manet.routingType = "iterative"
**.overlay*.onehopoverlay4manet.joinRetry = 2
**.overlay*.onehopoverlay4manet.joinDelay = 10s
**.overlay*.onehopoverlay4manet.stabilizeDelay = 20s
**.overlay*.onehopoverlay4manet.stabilizeEstimation = true
**.overlay*.onehopoverlay4manet.stabilizeEstimateMuliplier = 0.5
**.overlay*.onehopoverlay4manet.cacheFlushDelay = 120s
**.overlay*.onehopoverlay4manet.cacheCheckMultiplier = 3
**.overlay*.onehopoverlay4manet.cacheTTL = 120s
**.overlay*.onehopoverlay4manet.successorListSize = 4
**.overlay*.onehopoverlay4manet.nodesPerSlice = 2 #not used anymore
**.overlay*.onehopoverlay4manet.cacheUpdateDelta = 0.5
**.overlay*.onehopoverlay4manet.activePropagation = true
**.overlay*.onehopoverlay4manet.sendFalseNegWarnings = true
**.overlay*.onehopoverlay4manet.fibonacci = false

#tiers
**.tier1Type = "oversim.applications.kbrtestapp.KBRTestAppModules"
**.tier1*.kbrTestApp.testMsgInterval = 30s
**.tier1*.kbrTestApp.kbrOneWayTest = false
**.tier1*.kbrTestApp.kbrRpcTest = false
**.tier1*.kbrTestApp.kbrLookupTest = true
**.tier2Type = "oversim.common.TierDummy"
**.tier3Type = "oversim.common.TierDummy"

**.numTiers = 1

**.tier3.debugOutput = false
**.tier2.debugOutput = false

#OLSR manet routing
**.terminalTypes= "p2psipmanet.Host"
*.underlayConfigurator.churnGeneratorTypes = "p2psipmanet.ZeroChurn"
**.transitionTime = 20s
**.measurementTime = 480s

[Config MassMobilityChord]
record-eventlog = false
#debug-on-errors = true
**.vector-recording = true
**.scalar-recording = true
sim-time-limit = 60min #note: see oversim-specific parameters "transition-time" / "measurement time"
description = "MassMobility Chord"
network = Scenario

*.hosts = 30

**.constraintAreaMinX = 0m
**.constraintAreaMinY = 0m
**.constraintAreaMinZ = 0m
**.constraintAreaMaxX = 2000m
**.constraintAreaMaxY = 2000m
**.constraintAreaMaxZ = 0m
*.host[*].wlan[*].radio.maxDistance = 750m

**.neighborCache.debugOutput = true
**.chord.overlayId = 0

# mobility
**.host*.mobilityType = "MassMobility"
**.host*.mobility.initFromDisplayString = false
**.host*.mobility.changeInterval = truncnormal(2s, 0.5s)
**.host*.mobility.changeAngleBy = normal(0deg, 30deg)
**.host*.mobility.speed = truncnormal(20mps, 8mps)
**.host*.mobility.updateInterval = 100ms
**.host*.ac_wlan.interfaces = "wlan0"

#overlay
**.overlayType = "p2psipmanet.ManetChordModules"
**.overlay.chord.joinDelay = 20s

#tiers
**.tier1Type = "oversim.applications.kbrtestapp.KBRTestAppModules"
**.tier1*.kbrTestApp.testMsgInterval = 30s
**.tier1*.kbrTestApp.kbrOneWayTest = false
**.tier1*.kbrTestApp.kbrRpcTest = false
**.tier1*.kbrTestApp.kbrLookupTest = true
**.tier2Type = "oversim.common.TierDummy"
**.tier3Type = "oversim.common.TierDummy"
**.numTiers = 1

**.tier3.debugOutput = false
**.tier2.debugOutput = false

#OLSR manet routing
**.terminalTypes= "p2psipmanet.Host"
**.churnGeneratorTypes = "p2psipmanet.ZeroChurn" # a list of churn generators to be used
**.transitionTime = 20s
**.measurementTime = 480s

[Config MassMobilityEpiChord]
record-eventlog = false
#debug-on-errors = true
**.vector-recording = true
**.scalar-recording = true
sim-time-limit = 60min #note: see oversim-specific parameters "transition-time" / "measurement time"
description = "MassMobility EpiChord"
network = Scenario

*.hosts = 30

**.constraintAreaMinX = 0m
**.constraintAreaMinY = 0m
**.constraintAreaMinZ = 0m
**.constraintAreaMaxX = 2000m
**.constraintAreaMaxY = 2000m
**.constraintAreaMaxZ = 0m
*.host[*].wlan[*].radio.maxDistance = 750m

**.neighborCache.debugOutput = true
**.epichord.overlayId = 0

# mobility
**.host*.mobilityType = "MassMobility"
**.host*.mobility.initFromDisplayString = false
**.host*.mobility.changeInterval = truncnormal(2s, 0.5s)
**.host*.mobility.changeAngleBy = normal(0deg, 30deg)
**.host*.mobility.speed = truncnormal(20mps, 8mps)
**.host*.mobility.updateInterval = 100ms
**.host*.ac_wlan.interfaces = "wlan0"

#overlay
**.overlayType = "p2psipmanet.ManetEpiChordModules"
**.overlay*.epichord.lookupRedundantNodes = 3
**.overlay*.epichord.lookupParallelPaths = 1
**.overlay*.epichord.lookupParallelRpcs = 1
**.overlay*.epichord.lookupMerge = true
**.overlay*.epichord.routingType = "iterative"
**.overlay*.epichord.joinRetry = 2
**.overlay*.epichord.joinDelay = 20s
**.overlay*.epichord.stabilizeDelay = 20s
**.overlay*.epichord.stabilizeEstimation = true
**.overlay*.epichord.stabilizeEstimateMuliplier = 0.5
**.overlay*.epichord.cacheFlushDelay = 20s
**.overlay*.epichord.cacheCheckMultiplier = 3
**.overlay*.epichord.cacheTTL = 120s
**.overlay*.epichord.successorListSize = 4
**.overlay*.epichord.nodesPerSlice = 2
**.overlay*.epichord.cacheUpdateDelta = 0.5
**.overlay*.epichord.activePropagation = true
**.overlay*.epichord.sendFalseNegWarnings = true
**.overlay*.epichord.fibonacci = false

#tiers
**.tier1Type = "oversim.applications.kbrtestapp.KBRTestAppModules"
**.tier1*.kbrTestApp.testMsgInterval = 30s
**.tier1*.kbrTestApp.kbrOneWayTest = false
**.tier1*.kbrTestApp.kbrRpcTest = false
**.tier1*.kbrTestApp.kbrLookupTest = true
**.tier2Type = "oversim.common.TierDummy"
**.tier3Type = "oversim.common.TierDummy"

**.numTiers = 1

**.tier3.debugOutput = false
**.tier2.debugOutput = false

#OLSR manet routing
**.terminalTypes= "p2psipmanet.Host"
*.underlayConfigurator.churnGeneratorTypes = "p2psipmanet.ZeroChurn"
**.transitionTime = 20s
**.measurementTime = 480s

[Config MassMobilityOneHopOverlay4MANET]
record-eventlog = false
#debug-on-errors = true
**.vector-recording = true
**.scalar-recording = true
sim-time-limit = 60min #note: see oversim-specific parameters "transition-time" / "measurement time"
description = "MAssMobility OneHopOverlay4MANET"
network = Scenario

*.hosts = 30

**.constraintAreaMinX = 0m
**.constraintAreaMinY = 0m
**.constraintAreaMinZ = 0m
**.constraintAreaMaxX = 2000m
**.constraintAreaMaxY = 2000m
**.constraintAreaMaxZ = 0m
*.host[*].wlan[*].radio.maxDistance = 750m

**.neighborCache.debugOutput = true
**.onehopoverlay4manet.overlayId = 0

# mobility
**.host*.mobilityType = "MassMobility"
**.host*.mobility.initFromDisplayString = false
**.host*.mobility.changeInterval = truncnormal(2s, 0.5s)
**.host*.mobility.changeAngleBy = normal(0deg, 30deg)
**.host*.mobility.speed = truncnormal(20mps, 8mps)
**.host*.mobility.updateInterval = 100ms
**.host*.ac_wlan.interfaces = "wlan0"

#overlay
**.overlayType = "p2psipmanet.ManetOneHopOverlay4MANETModules"
**.overlay*.onehopoverlay4manet.lookupRedundantNodes = 3
**.overlay*.onehopoverlay4manet.lookupParallelPaths = 1
**.overlay*.onehopoverlay4manet.lookupParallelRpcs = 1
**.overlay*.onehopoverlay4manet.lookupMerge = true
**.overlay*.onehopoverlay4manet.routingType = "iterative"
**.overlay*.onehopoverlay4manet.joinRetry = 2
**.overlay*.onehopoverlay4manet.joinDelay = 10s
**.overlay*.onehopoverlay4manet.stabilizeDelay = 20s
**.overlay*.onehopoverlay4manet.stabilizeEstimation = true
**.overlay*.onehopoverlay4manet.stabilizeEstimateMuliplier = 0.5
**.overlay*.onehopoverlay4manet.cacheFlushDelay = 120s
**.overlay*.onehopoverlay4manet.cacheCheckMultiplier = 3
**.overlay*.onehopoverlay4manet.cacheTTL = 120s
**.overlay*.onehopoverlay4manet.successorListSize = 4
**.overlay*.onehopoverlay4manet.nodesPerSlice = 2 #not used anymore
**.overlay*.onehopoverlay4manet.cacheUpdateDelta = 0.5
**.overlay*.onehopoverlay4manet.activePropagation = true
**.overlay*.onehopoverlay4manet.sendFalseNegWarnings = true
**.overlay*.onehopoverlay4manet.fibonacci = false

#tiers
**.tier1Type = "oversim.applications.kbrtestapp.KBRTestAppModules"
**.tier1*.kbrTestApp.testMsgInterval = 30s
**.tier1*.kbrTestApp.kbrOneWayTest = false
**.tier1*.kbrTestApp.kbrRpcTest = false
**.tier1*.kbrTestApp.kbrLookupTest = true
**.tier2Type = "oversim.common.TierDummy"
**.tier3Type = "oversim.common.TierDummy"

**.numTiers = 1

**.tier3.debugOutput = false
**.tier2.debugOutput = false

#OLSR manet routing
**.terminalTypes= "p2psipmanet.Host"
*.underlayConfigurator.churnGeneratorTypes = "p2psipmanet.ZeroChurn"
**.transitionTime = 20s
**.measurementTime = 480s

[Config RandomWayPointChord]
record-eventlog = false
#debug-on-errors = true
**.vector-recording = true
**.scalar-recording = true
sim-time-limit = 60min #note: see oversim-specific parameters "transition-time" / "measurement time"
description = "RandomWayPoint Chord"
network = Scenario

*.hosts = 30

**.constraintAreaMinX = 0m
**.constraintAreaMinY = 0m
**.constraintAreaMinZ = 0m
**.constraintAreaMaxX = 2000m
**.constraintAreaMaxY = 2000m
**.constraintAreaMaxZ = 0m
*.host[*].wlan[*].radio.maxDistance = 750m

**.neighborCache.debugOutput = true
**.chord.overlayId = 0

# mobility
**.host*.mobilityType = "RandomWPMobility"
**.host*.mobility.initFromDisplayString = false
**.host*.mobility.speed = truncnormal(20mps, 8mps)
**.host*.mobility.updateInterval = 100ms
**.host*.ac_wlan.interfaces = "wlan0"

#overlay
**.overlayType = "p2psipmanet.ManetChordModules"
**.overlay.chord.joinDelay = 20s

#tiers
**.tier1Type = "oversim.applications.kbrtestapp.KBRTestAppModules"
**.tier1*.kbrTestApp.testMsgInterval = 30s
**.tier1*.kbrTestApp.kbrOneWayTest = false
**.tier1*.kbrTestApp.kbrRpcTest = false
**.tier1*.kbrTestApp.kbrLookupTest = true
**.tier2Type = "oversim.common.TierDummy"
**.tier3Type = "oversim.common.TierDummy"
**.numTiers = 1

**.tier3.debugOutput = false
**.tier2.debugOutput = false

#OLSR manet routing
**.terminalTypes= "p2psipmanet.Host"
**.churnGeneratorTypes = "p2psipmanet.ZeroChurn" # a list of churn generators to be used
**.transitionTime = 20s
**.measurementTime = 480s

[Config RandomWayPointEpiChord]
record-eventlog = false
#debug-on-errors = true
**.vector-recording = true
**.scalar-recording = true
sim-time-limit = 60min #note: see oversim-specific parameters "transition-time" / "measurement time"
description = "RandomWayPoint EpiChord"
network = Scenario

*.hosts = 30

**.constraintAreaMinX = 0m
**.constraintAreaMinY = 0m
**.constraintAreaMinZ = 0m
**.constraintAreaMaxX = 2000m
**.constraintAreaMaxY = 2000m
**.constraintAreaMaxZ = 0m
*.host[*].wlan[*].radio.maxDistance = 750m

**.neighborCache.debugOutput = true
**.epichord.overlayId = 0

# mobility
**.host*.mobilityType = "RandomWPMobility"
**.host*.mobility.initFromDisplayString = false
**.host*.mobility.speed = truncnormal(20mps, 8mps)
**.host*.mobility.updateInterval = 100ms
**.host*.ac_wlan.interfaces = "wlan0"

#overlay
**.overlayType = "p2psipmanet.ManetEpiChordModules"
**.overlay*.epichord.lookupRedundantNodes = 3
**.overlay*.epichord.lookupParallelPaths = 1
**.overlay*.epichord.lookupParallelRpcs = 1
**.overlay*.epichord.lookupMerge = true
**.overlay*.epichord.routingType = "iterative"
**.overlay*.epichord.joinRetry = 2
**.overlay*.epichord.joinDelay = 20s
**.overlay*.epichord.stabilizeDelay = 20s
**.overlay*.epichord.stabilizeEstimation = true
**.overlay*.epichord.stabilizeEstimateMuliplier = 0.5
**.overlay*.epichord.cacheFlushDelay = 20s
**.overlay*.epichord.cacheCheckMultiplier = 3
**.overlay*.epichord.cacheTTL = 120s
**.overlay*.epichord.successorListSize = 4
**.overlay*.epichord.nodesPerSlice = 2
**.overlay*.epichord.cacheUpdateDelta = 0.5
**.overlay*.epichord.activePropagation = true
**.overlay*.epichord.sendFalseNegWarnings = true
**.overlay*.epichord.fibonacci = false

#tiers
**.tier1Type = "oversim.applications.kbrtestapp.KBRTestAppModules"
**.tier1*.kbrTestApp.testMsgInterval = 30s
**.tier1*.kbrTestApp.kbrOneWayTest = false
**.tier1*.kbrTestApp.kbrRpcTest = false
**.tier1*.kbrTestApp.kbrLookupTest = true
**.tier2Type = "oversim.common.TierDummy"
**.tier3Type = "oversim.common.TierDummy"

**.numTiers = 1

**.tier3.debugOutput = false
**.tier2.debugOutput = false

#OLSR manet routing
**.terminalTypes= "p2psipmanet.Host"
*.underlayConfigurator.churnGeneratorTypes = "p2psipmanet.ZeroChurn"
**.transitionTime = 20s
**.measurementTime = 480s

[Config RandomWayPointOneHopOverlay4MANET]
record-eventlog = false
#debug-on-errors = true
**.vector-recording = true
**.scalar-recording = true
sim-time-limit = 60min #note: see oversim-specific parameters "transition-time" / "measurement time"
description = "RandomWayPoint OneHopOverlay4MANET"
network = Scenario

*.hosts = 30

**.constraintAreaMinX = 0m
**.constraintAreaMinY = 0m
**.constraintAreaMinZ = 0m
**.constraintAreaMaxX = 2000m
**.constraintAreaMaxY = 2000m
**.constraintAreaMaxZ = 0m
*.host[*].wlan[*].radio.maxDistance = 750m

**.neighborCache.debugOutput = true
**.onehopoverlay4manet.overlayId = 0

# mobility
**.host*.mobilityType = "RandomWPMobility"
**.host*.mobility.initFromDisplayString = false
**.host*.mobility.speed = truncnormal(20mps, 8mps)
**.host*.mobility.updateInterval = 100ms
**.host*.ac_wlan.interfaces = "wlan0"

#overlay
**.overlayType = "p2psipmanet.ManetOneHopOverlay4MANETModules"
**.overlay*.onehopoverlay4manet.lookupRedundantNodes = 3
**.overlay*.onehopoverlay4manet.lookupParallelPaths = 1
**.overlay*.onehopoverlay4manet.lookupParallelRpcs = 1
**.overlay*.onehopoverlay4manet.lookupMerge = true
**.overlay*.onehopoverlay4manet.routingType = "iterative"
**.overlay*.onehopoverlay4manet.joinRetry = 2
**.overlay*.onehopoverlay4manet.joinDelay = 10s
**.overlay*.onehopoverlay4manet.stabilizeDelay = 20s
**.overlay*.onehopoverlay4manet.stabilizeEstimation = true
**.overlay*.onehopoverlay4manet.stabilizeEstimateMuliplier = 0.5
**.overlay*.onehopoverlay4manet.cacheFlushDelay = 120s
**.overlay*.onehopoverlay4manet.cacheCheckMultiplier = 3
**.overlay*.onehopoverlay4manet.cacheTTL = 120s
**.overlay*.onehopoverlay4manet.successorListSize = 4
**.overlay*.onehopoverlay4manet.nodesPerSlice = 2 #not used anymore
**.overlay*.onehopoverlay4manet.cacheUpdateDelta = 0.5
**.overlay*.onehopoverlay4manet.activePropagation = true
**.overlay*.onehopoverlay4manet.sendFalseNegWarnings = true
**.overlay*.onehopoverlay4manet.fibonacci = false

#tiers
**.tier1Type = "oversim.applications.kbrtestapp.KBRTestAppModules"
**.tier1*.kbrTestApp.testMsgInterval = 30s
**.tier1*.kbrTestApp.kbrOneWayTest = false
**.tier1*.kbrTestApp.kbrRpcTest = false
**.tier1*.kbrTestApp.kbrLookupTest = true
**.tier2Type = "oversim.common.TierDummy"
**.tier3Type = "oversim.common.TierDummy"

**.numTiers = 1

**.tier3.debugOutput = false
**.tier2.debugOutput = false

#OLSR manet routing
**.terminalTypes= "p2psipmanet.Host"
*.underlayConfigurator.churnGeneratorTypes = "p2psipmanet.ZeroChurn"
**.transitionTime = 20s
**.measurementTime = 480s

[Config LinearMobilityPointChord]
record-eventlog = false
#debug-on-errors = true
**.vector-recording = true
**.scalar-recording = true
sim-time-limit = 60min #note: see oversim-specific parameters "transition-time" / "measurement time"
description = "LinearMobility Chord"
network = Scenario

*.hosts = 30

**.constraintAreaMinX = 0m
**.constraintAreaMinY = 0m
**.constraintAreaMinZ = 0m
**.constraintAreaMaxX = 2000m
**.constraintAreaMaxY = 2000m
**.constraintAreaMaxZ = 0m
*.host[*].wlan[*].radio.maxDistance = 750m

**.neighborCache.debugOutput = true
**.chord.overlayId = 0

# mobility
**.host*.mobilityType = "LinearMobility"
**.host*.mobility.initFromDisplayString = false
**.host*.mobility.speed = truncnormal(20mps, 8mps)
**.host*.mobility.updateInterval = 100ms
**.host*.ac_wlan.interfaces = "wlan0"

#overlay
**.overlayType = "p2psipmanet.ManetChordModules"
**.overlay.chord.joinDelay = 20s

#tiers
**.tier1Type = "oversim.applications.kbrtestapp.KBRTestAppModules"
**.tier1*.kbrTestApp.testMsgInterval = 30s
**.tier1*.kbrTestApp.kbrOneWayTest = false
**.tier1*.kbrTestApp.kbrRpcTest = false
**.tier1*.kbrTestApp.kbrLookupTest = true
**.tier2Type = "oversim.common.TierDummy"
**.tier3Type = "oversim.common.TierDummy"
**.numTiers = 1

**.tier3.debugOutput = false
**.tier2.debugOutput = false

#OLSR manet routing
**.terminalTypes= "p2psipmanet.Host"
**.churnGeneratorTypes = "p2psipmanet.ZeroChurn" # a list of churn generators to be used
**.transitionTime = 20s
**.measurementTime = 480s

[Config LinearMobilityEpiChord]
record-eventlog = false
#debug-on-errors = true
**.vector-recording = true
**.scalar-recording = true
sim-time-limit = 60min #note: see oversim-specific parameters "transition-time" / "measurement time"
description = "RandomWayPoint EpiChord"
network = Scenario

*.hosts = 30

**.constraintAreaMinX = 0m
**.constraintAreaMinY = 0m
**.constraintAreaMinZ = 0m
**.constraintAreaMaxX = 2000m
**.constraintAreaMaxY = 2000m
**.constraintAreaMaxZ = 0m
*.host[*].wlan[*].radio.maxDistance = 750m

**.neighborCache.debugOutput = true
**.epichord.overlayId = 0

# mobility
**.host*.mobilityType = "LinearMobility"
**.host*.mobility.initFromDisplayString = false
**.host*.mobility.speed = truncnormal(20mps, 8mps)
**.host*.mobility.updateInterval = 100ms
**.host*.ac_wlan.interfaces = "wlan0"

#overlay
**.overlayType = "p2psipmanet.ManetEpiChordModules"
**.overlay*.epichord.lookupRedundantNodes = 3
**.overlay*.epichord.lookupParallelPaths = 1
**.overlay*.epichord.lookupParallelRpcs = 1
**.overlay*.epichord.lookupMerge = true
**.overlay*.epichord.routingType = "iterative"
**.overlay*.epichord.joinRetry = 2
**.overlay*.epichord.joinDelay = 20s
**.overlay*.epichord.stabilizeDelay = 20s
**.overlay*.epichord.stabilizeEstimation = true
**.overlay*.epichord.stabilizeEstimateMuliplier = 0.5
**.overlay*.epichord.cacheFlushDelay = 20s
**.overlay*.epichord.cacheCheckMultiplier = 3
**.overlay*.epichord.cacheTTL = 120s
**.overlay*.epichord.successorListSize = 4
**.overlay*.epichord.nodesPerSlice = 2
**.overlay*.epichord.cacheUpdateDelta = 0.5
**.overlay*.epichord.activePropagation = true
**.overlay*.epichord.sendFalseNegWarnings = true
**.overlay*.epichord.fibonacci = false


#tiers
**.tier1Type = "oversim.applications.kbrtestapp.KBRTestAppModules"
**.tier1*.kbrTestApp.testMsgInterval = 30s
**.tier1*.kbrTestApp.kbrOneWayTest = false
**.tier1*.kbrTestApp.kbrRpcTest = false
**.tier1*.kbrTestApp.kbrLookupTest = true
**.tier2Type = "oversim.common.TierDummy"
**.tier3Type = "oversim.common.TierDummy"

**.numTiers = 1

**.tier3.debugOutput = false
**.tier2.debugOutput = false

#OLSR manet routing
**.terminalTypes= "p2psipmanet.Host"
*.underlayConfigurator.churnGeneratorTypes = "p2psipmanet.ZeroChurn"
**.transitionTime = 20s
**.measurementTime = 480s

[Config LinearMobilityOneHopOverlay4MANET]
record-eventlog = false
#debug-on-errors = true
**.vector-recording = true
**.scalar-recording = true
sim-time-limit = 60min #note: see oversim-specific parameters "transition-time" / "measurement time"
description = "LinearMobility OneHopOverlay4MANET"
network = Scenario

*.hosts = 30

**.constraintAreaMinX = 0m
**.constraintAreaMinY = 0m
**.constraintAreaMinZ = 0m
**.constraintAreaMaxX = 2000m
**.constraintAreaMaxY = 2000m
**.constraintAreaMaxZ = 0m
*.host[*].wlan[*].radio.maxDistance = 750m

**.neighborCache.debugOutput = true
**.onehopoverlay4manet.overlayId = 0

# mobility
**.host*.mobilityType = "LinearMobility"
**.host*.mobility.initFromDisplayString = false
**.host*.mobility.speed = truncnormal(20mps, 8mps)
**.host*.mobility.updateInterval = 100ms
**.host*.ac_wlan.interfaces = "wlan0"

#overlay
**.overlayType = "p2psipmanet.ManetOneHopOverlay4MANETModules"
**.overlay*.onehopoverlay4manet.lookupRedundantNodes = 3
**.overlay*.onehopoverlay4manet.lookupParallelPaths = 1
**.overlay*.onehopoverlay4manet.lookupParallelRpcs = 1
**.overlay*.onehopoverlay4manet.lookupMerge = true
**.overlay*.onehopoverlay4manet.routingType = "iterative"
**.overlay*.onehopoverlay4manet.joinRetry = 2
**.overlay*.onehopoverlay4manet.joinDelay = 10s
**.overlay*.onehopoverlay4manet.stabilizeDelay = 20s
**.overlay*.onehopoverlay4manet.stabilizeEstimation = true
**.overlay*.onehopoverlay4manet.stabilizeEstimateMuliplier = 0.5
**.overlay*.onehopoverlay4manet.cacheFlushDelay = 120s
**.overlay*.onehopoverlay4manet.cacheCheckMultiplier = 3
**.overlay*.onehopoverlay4manet.cacheTTL = 120s
**.overlay*.onehopoverlay4manet.successorListSize = 4
**.overlay*.onehopoverlay4manet.nodesPerSlice = 2 #not used anymore
**.overlay*.onehopoverlay4manet.cacheUpdateDelta = 0.5
**.overlay*.onehopoverlay4manet.activePropagation = true
**.overlay*.onehopoverlay4manet.sendFalseNegWarnings = true
**.overlay*.onehopoverlay4manet.fibonacci = false

#tiers
**.tier1Type = "oversim.applications.kbrtestapp.KBRTestAppModules"
**.tier1*.kbrTestApp.testMsgInterval = 30s
**.tier1*.kbrTestApp.kbrOneWayTest = false
**.tier1*.kbrTestApp.kbrRpcTest = false
**.tier1*.kbrTestApp.kbrLookupTest = true
**.tier2Type = "oversim.common.TierDummy"
**.tier3Type = "oversim.common.TierDummy"

**.numTiers = 1

**.tier3.debugOutput = false
**.tier2.debugOutput = false

#OLSR manet routing
**.terminalTypes= "p2psipmanet.Host"
*.underlayConfigurator.churnGeneratorTypes = "p2psipmanet.ZeroChurn"
**.transitionTime = 20s
**.measurementTime = 480s


#include default values

include ./default.ini
